@<TRIPOS>MOLECULE
Structure2
31   33    1
SMALL
USER_CHARGES


@<TRIPOS>ATOM
      1 O1          6.1543   -0.3193  -10.7674 O.3       1 UNK        -0.3882 
      2 O3          2.8763   -0.0453  -13.2314 O.2       1 UNK        -0.5897 
      3 C7          5.2113   -0.6203  -13.0044 C.ar      1 UNK        -0.4305 
      4 C8          6.2833   -0.6843  -12.0924 C.ar      1 UNK         0.6712 
      5 C9          4.9493    0.1207  -10.3064 C.2       1 UNK         0.2671 
      6 C11         3.8703   -0.1353  -12.5134 C.2       1 UNK         0.8578 
      7 C12         3.8563    0.2197  -11.0984 C.2       1 UNK        -0.6261 
      8 C13         5.4573   -1.0183  -14.3364 C.ar      1 UNK         0.3376 
      9 C14         7.5473   -1.1223  -12.4814 C.ar      1 UNK        -0.5057 
     10 C16         7.7673   -1.5093  -13.7984 C.ar      1 UNK         0.3760 
     11 C17         6.7263   -1.4573  -14.7204 C.ar      1 UNK        -0.4497 
     12 H22         2.9253    0.5737  -10.6874 H         1 UNK         0.2367 
     13 H23         8.3503   -1.1613  -11.7614 H         1 UNK         0.2213 
     14 H25         6.9043   -1.7593  -15.7434 H         1 UNK         0.1600 
     15 C10         5.0113    0.4657   -8.8514 C.ar      1 UNK        -0.0156 
     16 C15         4.0953   -0.0863   -7.9394 C.ar      1 UNK        -0.0935 
     17 C19         4.1403    0.2257   -6.5794 C.ar      1 UNK         0.1886 
     18 H24         3.3303   -0.7703   -8.2794 H         1 UNK         0.1603 
     19 C21         5.1153    1.1067   -6.1004 C.ar      1 UNK         0.1373 
     20 C20         6.0333    1.6647   -6.9874 C.ar      1 UNK        -0.1884 
     21 C18         5.9813    1.3477   -8.3444 C.ar      1 UNK        -0.0902 
     22 H27         6.7913    2.3467   -6.6294 H         1 UNK         0.1387 
     23 H26         6.7143    1.8067   -8.9884 H         1 UNK         0.1434 
     24 O5          3.2213   -0.3403   -5.7314 O.3       1 UNK        -0.5451 
     25 H30         3.4883   -1.2043   -5.4104 H         1 UNK         0.4183 
     26 O6          5.1863    1.4337   -4.7684 O.3       1 UNK        -0.5641 
     27 H31         4.4823    1.0427   -4.2454 H         1 UNK         0.4147 
     28 O2          4.4853   -0.9963  -15.3054 O.3       1 UNK        -0.5174 
     29 H28         4.4803   -1.7883  -15.8464 H         1 UNK         0.4065 
     30 O4          9.0073   -1.9413  -14.1864 O.3       1 UNK        -0.5832 
     31 H29         9.7173   -1.4993  -13.7154 H         1 UNK         0.4524 
@<TRIPOS>BOND
     1    1    4 1    
     2    1    5 1    
     3    2    6 2    
     4    3    4 ar   
     5    3    6 1    
     6    3    8 ar   
     7    4    9 ar   
     8    5    7 2    
     9    5   15 1    
    10    6    7 1    
    11    7   12 1    
    12    8   11 ar   
    13    8   28 1    
    14    9   10 ar   
    15    9   13 1    
    16   10   11 ar   
    17   10   30 1    
    18   11   14 1    
    19   15   16 ar   
    20   15   21 ar   
    21   16   17 ar   
    22   16   18 1    
    23   17   19 ar   
    24   17   24 1    
    25   19   20 ar   
    26   19   26 1    
    27   20   21 ar   
    28   20   22 1    
    29   21   23 1    
    30   24   25 1    
    31   26   27 1    
    32   28   29 1    
    33   30   31 1    
@<TRIPOS>SUBSTRUCTURE
     1 UNK         1 GROUP             0       ****    0 ROOT    
@<TRIPOS>MOLECULE
Structure2
31   33    1
SMALL
USER_CHARGES


@<TRIPOS>ATOM
      1 O1         -5.4778   -6.6694    9.5825 O.3       2 UNK        -0.3882 
      2 O3         -3.8728   -9.7604    7.4005 O.2       2 UNK        -0.5897 
      3 C7         -4.4908   -7.4264    7.4765 C.ar      2 UNK        -0.4305 
      4 C8         -5.0518   -6.4244    8.2915 C.ar      2 UNK         0.6712 
      5 C9         -5.3568   -7.9234   10.1025 C.2       2 UNK         0.2671 
      6 C11        -4.3498   -8.8204    8.0335 C.2       2 UNK         0.8578 
      7 C12        -4.8328   -8.9574    9.4045 C.2       2 UNK        -0.6261 
      8 C13        -4.0908   -7.0634    6.1715 C.ar      2 UNK         0.3376 
      9 C14        -5.2108   -5.1174    7.8375 C.ar      2 UNK        -0.5057 
     10 C16        -4.8098   -4.7814    6.5495 C.ar      2 UNK         0.3760 
     11 C17        -4.2518   -5.7514    5.7215 C.ar      2 UNK        -0.4497 
     12 H22        -4.7578   -9.9304    9.8595 H         2 UNK         0.2367 
     13 H23        -5.6448   -4.3704    8.4855 H         2 UNK         0.2213 
     14 H25        -3.9418   -5.4844    4.7215 H         2 UNK         0.1600 
     15 C10        -5.8708   -7.9864   11.5065 C.ar      2 UNK        -0.0156 
     16 C15        -5.6038   -6.9524   12.4205 C.ar      2 UNK        -0.0935 
     17 C19        -6.0758   -6.9974   13.7335 C.ar      2 UNK         0.1886 
     18 H24        -5.0198   -6.0934   12.1195 H         2 UNK         0.1603 
     19 C21        -6.8348   -8.0914   14.1615 C.ar      2 UNK         0.1373 
     20 C20        -7.1118   -9.1274   13.2715 C.ar      2 UNK        -0.1884 
     21 C18        -6.6358   -9.0744   11.9625 C.ar      2 UNK        -0.0902 
     22 H27        -7.6968   -9.9774   13.5915 H         2 UNK         0.1387 
     23 H26        -6.8778   -9.9014   11.3145 H         2 UNK         0.1434 
     24 O5         -5.7868   -5.9614   14.5855 O.3       2 UNK        -0.5451 
     25 H30        -4.9768   -5.4994   14.3555 H         2 UNK         0.4183 
     26 O6         -7.3138   -8.1654   15.4465 O.3       2 UNK        -0.5641 
     27 H31        -6.7898   -8.7354   16.0135 H         2 UNK         0.4147 
     28 O2         -3.5328   -7.9594    5.2945 O.3       2 UNK        -0.5174 
     29 H28        -4.1228   -8.1934    4.5745 H         2 UNK         0.4065 
     30 O4         -4.9638   -3.4984    6.0985 O.3       2 UNK        -0.5832 
     31 H29        -4.9248   -3.4354    5.1415 H         2 UNK         0.4524 
@<TRIPOS>BOND
     1    1    4 1    
     2    1    5 1    
     3    2    6 2    
     4    3    4 ar   
     5    3    6 1    
     6    3    8 ar   
     7    4    9 ar   
     8    5    7 2    
     9    5   15 1    
    10    6    7 1    
    11    7   12 1    
    12    8   11 ar   
    13    8   28 1    
    14    9   10 ar   
    15    9   13 1    
    16   10   11 ar   
    17   10   30 1    
    18   11   14 1    
    19   15   16 ar   
    20   15   21 ar   
    21   16   17 ar   
    22   16   18 1    
    23   17   19 ar   
    24   17   24 1    
    25   19   20 ar   
    26   19   26 1    
    27   20   21 ar   
    28   20   22 1    
    29   21   23 1    
    30   24   25 1    
    31   26   27 1    
    32   28   29 1    
    33   30   31 1    
@<TRIPOS>SUBSTRUCTURE
     1 UNK         2 GROUP             0       ****    0 ROOT    
