@<TRIPOS>MOLECULE
1AO6 - preprocessed_merged9
31   33    1
SMALL
USER_CHARGES


@<TRIPOS>ATOM
      1 O1         24.0469   -4.1161    1.3762 O.3       1 UNK        -0.3882 
      2 O3         20.0429   -3.4061    1.9712 O.2       1 UNK        -0.5897 
      3 C7         21.9449   -4.8321    2.4012 C.ar      1 UNK        -0.4305 
      4 C8         23.3199   -5.0011    2.1482 C.ar      1 UNK         0.6712 
      5 C9         23.4249   -3.0321    0.8312 C.2       1 UNK         0.2671 
      6 C11        21.2389   -3.6401    1.8072 C.2       1 UNK         0.8578 
      7 C12        22.1079   -2.7771    1.0132 C.2       1 UNK        -0.6261 
      8 C13        21.3019   -5.7991    3.2042 C.ar      1 UNK         0.3376 
      9 C14        24.0309   -6.0801    2.6662 C.ar      1 UNK        -0.5057 
     10 C16        23.3779   -7.0211    3.4552 C.ar      1 UNK         0.3760 
     11 C17        22.0189   -6.8791    3.7222 C.ar      1 UNK        -0.4497 
     12 H22        21.6619   -1.9071    0.5612 H         1 UNK         0.2367 
     13 H23        25.0849   -6.1841    2.4552 H         1 UNK         0.2213 
     14 H25        21.5169   -7.6141    4.3362 H         1 UNK         0.1600 
     15 C10        24.3769   -2.1981    0.0332 C.ar      1 UNK        -0.0156 
     16 C15        25.1329   -2.7621   -1.0088 C.ar      1 UNK        -0.0935 
     17 C19        26.0249   -1.9971   -1.7618 C.ar      1 UNK         0.1886 
     18 H24        25.0369   -3.8121   -1.2478 H         1 UNK         0.1603 
     19 C21        26.1779   -0.6341   -1.4838 C.ar      1 UNK         0.1373 
     20 C20        25.4379   -0.0551   -0.4558 C.ar      1 UNK        -0.1884 
     21 C18        24.5499   -0.8271    0.2922 C.ar      1 UNK        -0.0902 
     22 H27        25.5479    0.9959   -0.2318 H         1 UNK         0.1387 
     23 H26        24.0009   -0.3311    1.0762 H         1 UNK         0.1434 
     24 O5         26.7389   -2.5971   -2.7688 O.3       1 UNK        -0.5451 
     25 H30        27.4069   -3.2061   -2.4448 H         1 UNK         0.4183 
     26 O6         27.0469    0.1459   -2.2068 O.3       1 UNK        -0.5641 
     27 H31        26.8729    1.0849   -2.1198 H         1 UNK         0.4147 
     28 O2         19.9659   -5.7321    3.5142 O.3       1 UNK        -0.5174 
     29 H28        19.7669   -6.0841    4.3842 H         1 UNK         0.4065 
     30 O4         24.0719   -8.0841    3.9672 O.3       1 UNK        -0.5832 
     31 H29        24.9609   -8.1521    3.6112 H         1 UNK         0.4524 
@<TRIPOS>BOND
     1    1    4 1    
     2    1    5 1    
     3    2    6 2    
     4    3    4 ar   
     5    3    6 1    
     6    3    8 ar   
     7    4    9 ar   
     8    5    7 2    
     9    5   15 1    
    10    6    7 1    
    11    7   12 1    
    12    8   11 ar   
    13    8   28 1    
    14    9   10 ar   
    15    9   13 1    
    16   10   11 ar   
    17   10   30 1    
    18   11   14 1    
    19   15   16 ar   
    20   15   21 ar   
    21   16   17 ar   
    22   16   18 1    
    23   17   19 ar   
    24   17   24 1    
    25   19   20 ar   
    26   19   26 1    
    27   20   21 ar   
    28   20   22 1    
    29   21   23 1    
    30   24   25 1    
    31   26   27 1    
    32   28   29 1    
    33   30   31 1    
@<TRIPOS>SUBSTRUCTURE
     1 UNK         1 GROUP             0       ****    0 ROOT    
