@<TRIPOS>MOLECULE
1AO6 - preprocessed_merged9
31   33    1
SMALL
USER_CHARGES


@<TRIPOS>ATOM
      1 O1         10.2819   10.5299  -17.5578 O.3       1 UNK        -0.3882 
      2 O3          8.5119   14.0259  -18.7968 O.2       1 UNK        -0.5897 
      3 C7          9.4989   11.9099  -19.4188 C.ar      1 UNK        -0.4305 
      4 C8         10.0969   10.7409  -18.9098 C.ar      1 UNK         0.6712 
      5 C9          9.8759   11.4779  -16.6678 C.2       1 UNK         0.2671 
      6 C11         9.0429   12.9729  -18.4498 C.2       1 UNK         0.8578 
      7 C12         9.2909   12.6369  -17.0508 C.2       1 UNK        -0.6261 
      8 C13         9.3599   12.0209  -20.8198 C.ar      1 UNK         0.3376 
      9 C14        10.5389    9.7219  -19.7498 C.ar      1 UNK        -0.5057 
     10 C16        10.3919    9.8509  -21.1268 C.ar      1 UNK         0.3760 
     11 C17         9.8049   10.9959  -21.6578 C.ar      1 UNK        -0.4497 
     12 H22         8.9879   13.3579  -16.3098 H         1 UNK         0.2367 
     13 H23        10.9939    8.8369  -19.3318 H         1 UNK         0.2213 
     14 H25         9.6929   11.0909  -22.7288 H         1 UNK         0.1600 
     15 C10        10.1619   11.0669  -15.2578 C.ar      1 UNK        -0.0156 
     16 C15         9.1179   10.7309  -14.3778 C.ar      1 UNK        -0.0935 
     17 C19         9.3689   10.3449  -13.0608 C.ar      1 UNK         0.1886 
     18 H24         8.0909   10.7669  -14.7108 H         1 UNK         0.1603 
     19 C21        10.6859   10.2869  -12.5918 C.ar      1 UNK         0.1373 
     20 C20        11.7359   10.6149  -13.4478 C.ar      1 UNK        -0.1884 
     21 C18        11.4759   10.9989  -14.7628 C.ar      1 UNK        -0.0902 
     22 H27        12.7559   10.5729  -13.0968 H         1 UNK         0.1387 
     23 H26        12.3229   11.2429  -15.3838 H         1 UNK         0.1434 
     24 O5          8.3139   10.0279  -12.2428 O.3       1 UNK        -0.5451 
     25 H30         7.5429   10.5809  -12.3908 H         1 UNK         0.4183 
     26 O6         10.9659    9.9109  -11.3008 O.3       1 UNK        -0.5641 
     27 H31        11.8529   10.1459  -11.0228 H         1 UNK         0.4147 
     28 O2          8.7919   13.1159  -21.4218 O.3       1 UNK        -0.5174 
     29 H28         7.8349   13.0649  -21.4618 H         1 UNK         0.4065 
     30 O4         10.8249    8.8529  -21.9568 O.3       1 UNK        -0.5832 
     31 H29        11.6329    8.4379  -21.6478 H         1 UNK         0.4524 
@<TRIPOS>BOND
     1    1    4 1    
     2    1    5 1    
     3    2    6 2    
     4    3    4 ar   
     5    3    6 1    
     6    3    8 ar   
     7    4    9 ar   
     8    5    7 2    
     9    5   15 1    
    10    6    7 1    
    11    7   12 1    
    12    8   11 ar   
    13    8   28 1    
    14    9   10 ar   
    15    9   13 1    
    16   10   11 ar   
    17   10   30 1    
    18   11   14 1    
    19   15   16 ar   
    20   15   21 ar   
    21   16   17 ar   
    22   16   18 1    
    23   17   19 ar   
    24   17   24 1    
    25   19   20 ar   
    26   19   26 1    
    27   20   21 ar   
    28   20   22 1    
    29   21   23 1    
    30   24   25 1    
    31   26   27 1    
    32   28   29 1    
    33   30   31 1    
@<TRIPOS>SUBSTRUCTURE
     1 UNK         1 GROUP             0       ****    0 ROOT    
