@<TRIPOS>MOLECULE
1AO6 - preprocessed_merged9
31   33    1
SMALL
USER_CHARGES


@<TRIPOS>ATOM
      1 O1         -5.5891   -6.6721    9.6172 O.3       1 UNK        -0.3882 
      2 O3         -3.9841   -9.7631    7.4352 O.2       1 UNK        -0.5897 
      3 C7         -4.6021   -7.4291    7.5112 C.ar      1 UNK        -0.4305 
      4 C8         -5.1631   -6.4271    8.3262 C.ar      1 UNK         0.6712 
      5 C9         -5.4681   -7.9261   10.1372 C.2       1 UNK         0.2671 
      6 C11        -4.4611   -8.8231    8.0682 C.2       1 UNK         0.8578 
      7 C12        -4.9441   -8.9601    9.4392 C.2       1 UNK        -0.6261 
      8 C13        -4.2021   -7.0661    6.2062 C.ar      1 UNK         0.3376 
      9 C14        -5.3221   -5.1201    7.8722 C.ar      1 UNK        -0.5057 
     10 C16        -4.9211   -4.7841    6.5842 C.ar      1 UNK         0.3760 
     11 C17        -4.3631   -5.7541    5.7562 C.ar      1 UNK        -0.4497 
     12 H22        -4.8691   -9.9331    9.8942 H         1 UNK         0.2367 
     13 H23        -5.7561   -4.3731    8.5202 H         1 UNK         0.2213 
     14 H25        -4.0531   -5.4871    4.7562 H         1 UNK         0.1600 
     15 C10        -5.9821   -7.9891   11.5412 C.ar      1 UNK        -0.0156 
     16 C15        -5.7151   -6.9551   12.4552 C.ar      1 UNK        -0.0935 
     17 C19        -6.1871   -7.0001   13.7682 C.ar      1 UNK         0.1886 
     18 H24        -5.1311   -6.0961   12.1542 H         1 UNK         0.1603 
     19 C21        -6.9461   -8.0941   14.1962 C.ar      1 UNK         0.1373 
     20 C20        -7.2231   -9.1301   13.3062 C.ar      1 UNK        -0.1884 
     21 C18        -6.7471   -9.0771   11.9972 C.ar      1 UNK        -0.0902 
     22 H27        -7.8081   -9.9801   13.6262 H         1 UNK         0.1387 
     23 H26        -6.9891   -9.9041   11.3492 H         1 UNK         0.1434 
     24 O5         -5.8981   -5.9641   14.6202 O.3       1 UNK        -0.5451 
     25 H30        -5.0881   -5.5021   14.3902 H         1 UNK         0.4183 
     26 O6         -7.4251   -8.1681   15.4812 O.3       1 UNK        -0.5641 
     27 H31        -6.9011   -8.7381   16.0482 H         1 UNK         0.4147 
     28 O2         -3.6441   -7.9621    5.3292 O.3       1 UNK        -0.5174 
     29 H28        -4.2341   -8.1961    4.6092 H         1 UNK         0.4065 
     30 O4         -5.0751   -3.5011    6.1332 O.3       1 UNK        -0.5832 
     31 H29        -5.0361   -3.4381    5.1762 H         1 UNK         0.4524 
@<TRIPOS>BOND
     1    1    4 1    
     2    1    5 1    
     3    2    6 2    
     4    3    4 ar   
     5    3    6 1    
     6    3    8 ar   
     7    4    9 ar   
     8    5    7 2    
     9    5   15 1    
    10    6    7 1    
    11    7   12 1    
    12    8   11 ar   
    13    8   28 1    
    14    9   10 ar   
    15    9   13 1    
    16   10   11 ar   
    17   10   30 1    
    18   11   14 1    
    19   15   16 ar   
    20   15   21 ar   
    21   16   17 ar   
    22   16   18 1    
    23   17   19 ar   
    24   17   24 1    
    25   19   20 ar   
    26   19   26 1    
    27   20   21 ar   
    28   20   22 1    
    29   21   23 1    
    30   24   25 1    
    31   26   27 1    
    32   28   29 1    
    33   30   31 1    
@<TRIPOS>SUBSTRUCTURE
     1 UNK         1 GROUP             0       ****    0 ROOT    
