@<TRIPOS>MOLECULE
1AO6 - preprocessed_merged9
31   33    1
SMALL
USER_CHARGES


@<TRIPOS>ATOM
      1 O1         22.9409   -8.5581  -11.4768 O.3       1 UNK        -0.3882 
      2 O3         23.6119   -6.8021  -15.1318 O.2       1 UNK        -0.5897 
      3 C7         24.5599   -7.7811  -13.1368 C.ar      1 UNK        -0.4305 
      4 C8         24.2419   -8.3741  -11.8998 C.ar      1 UNK         0.6712 
      5 C9         21.9119   -8.1561  -12.2758 C.2       1 UNK         0.2671 
      6 C11        23.4359   -7.3301  -14.0348 C.2       1 UNK         0.8578 
      7 C12        22.1079   -7.5761  -13.4828 C.2       1 UNK        -0.6261 
      8 C13        25.9259   -7.6431  -13.4668 C.ar      1 UNK         0.3376 
      9 C14        25.2329   -8.8131  -11.0238 C.ar      1 UNK        -0.5057 
     10 C16        26.5709   -8.6671  -11.3688 C.ar      1 UNK         0.3760 
     11 C17        26.9149   -8.0841  -12.5848 C.ar      1 UNK        -0.4497 
     12 H22        21.2619   -7.2751  -14.0778 H         1 UNK         0.2367 
     13 H23        24.9589   -9.2641  -10.0818 H         1 UNK         0.2213 
     14 H25        27.9579   -7.9741  -12.8478 H         1 UNK         0.1600 
     15 C10        20.5849   -8.4401  -11.6458 C.ar      1 UNK        -0.0156 
     16 C15        20.2599   -7.9201  -10.3798 C.ar      1 UNK        -0.0935 
     17 C19        19.0269   -8.1761   -9.7798 C.ar      1 UNK         0.1886 
     18 H24        20.9699   -7.3061   -9.8428 H         1 UNK         0.1603 
     19 C21        18.0819   -8.9671  -10.4418 C.ar      1 UNK         0.1373 
     20 C20        18.3829   -9.4911  -11.6968 C.ar      1 UNK        -0.1884 
     21 C18        19.6179   -9.2311  -12.2898 C.ar      1 UNK        -0.0902 
     22 H27        17.6609  -10.1031  -12.2178 H         1 UNK         0.1387 
     23 H26        19.8009   -9.6601  -13.2618 H         1 UNK         0.1434 
     24 O5         18.7609   -7.6451   -8.5418 O.3       1 UNK        -0.5451 
     25 H30        19.4789   -7.1071   -8.2008 H         1 UNK         0.4183 
     26 O6         16.8589   -9.2371   -9.8778 O.3       1 UNK        -0.5641 
     27 H31        16.5339   -8.5251   -9.3228 H         1 UNK         0.4147 
     28 O2         26.3479   -7.0801  -14.6458 O.3       1 UNK        -0.5174 
     29 H28        26.0429   -7.5601  -15.4188 H         1 UNK         0.4065 
     30 O4         27.5489   -9.0961  -10.5118 O.3       1 UNK        -0.5832 
     31 H29        27.3379   -8.9201   -9.5918 H         1 UNK         0.4524 
@<TRIPOS>BOND
     1    1    4 1    
     2    1    5 1    
     3    2    6 2    
     4    3    4 ar   
     5    3    6 1    
     6    3    8 ar   
     7    4    9 ar   
     8    5    7 2    
     9    5   15 1    
    10    6    7 1    
    11    7   12 1    
    12    8   11 ar   
    13    8   28 1    
    14    9   10 ar   
    15    9   13 1    
    16   10   11 ar   
    17   10   30 1    
    18   11   14 1    
    19   15   16 ar   
    20   15   21 ar   
    21   16   17 ar   
    22   16   18 1    
    23   17   19 ar   
    24   17   24 1    
    25   19   20 ar   
    26   19   26 1    
    27   20   21 ar   
    28   20   22 1    
    29   21   23 1    
    30   24   25 1    
    31   26   27 1    
    32   28   29 1    
    33   30   31 1    
@<TRIPOS>SUBSTRUCTURE
     1 UNK         1 GROUP             0       ****    0 ROOT    
