@<TRIPOS>MOLECULE
1AO6 - preprocessed_merged9
31   33    1
SMALL
USER_CHARGES


@<TRIPOS>ATOM
      1 O1         -6.5821   12.3429   18.4172 O.3       1 UNK        -0.3882 
      2 O3         -4.2701   15.3449   16.8252 O.2       1 UNK        -0.5897 
      3 C7         -4.4441   13.5299   18.4102 C.ar      1 UNK        -0.4305 
      4 C8         -5.3011   12.5259   18.9002 C.ar      1 UNK         0.6712 
      5 C9         -7.0491   13.1559   17.4292 C.2       1 UNK         0.2671 
      6 C11        -4.9421   14.4409   17.3172 C.2       1 UNK         0.8578 
      7 C12        -6.3081   14.1509   16.8882 C.2       1 UNK        -0.6261 
      8 C13        -3.1541   13.6269   18.9782 C.ar      1 UNK         0.3376 
      9 C14        -4.9021   11.6529   19.9092 C.ar      1 UNK        -0.5057 
     10 C16        -3.6281   11.7659   20.4542 C.ar      1 UNK         0.3760 
     11 C17        -2.7591   12.7489   19.9892 C.ar      1 UNK        -0.4497 
     12 H22        -6.7221   14.7679   16.1082 H         1 UNK         0.2367 
     13 H23        -5.5811   10.8919   20.2652 H         1 UNK         0.2213 
     14 H25        -1.7691   12.8319   20.4172 H         1 UNK         0.1600 
     15 C10        -8.4511   12.7999   17.0432 C.ar      1 UNK        -0.0156 
     16 C15        -9.1791   13.6039   16.1482 C.ar      1 UNK        -0.0935 
     17 C19       -10.4871   13.2849   15.7792 C.ar      1 UNK         0.1886 
     18 H24        -8.7341   14.4929   15.7252 H         1 UNK         0.1603 
     19 C21       -11.0991   12.1419   16.3042 C.ar      1 UNK         0.1373 
     20 C20       -10.3951   11.3319   17.1932 C.ar      1 UNK        -0.1884 
     21 C18        -9.0891   11.6579   17.5572 C.ar      1 UNK        -0.0902 
     22 H27       -10.8571   10.4469   17.6052 H         1 UNK         0.1387 
     23 H26        -8.5881   10.9979   18.2472 H         1 UNK         0.1434 
     24 O5        -11.1541   14.1029   14.9012 O.3       1 UNK        -0.5451 
     25 H30       -10.6971   14.9309   14.7382 H         1 UNK         0.4183 
     26 O6        -12.3841   11.8019   15.9612 O.3       1 UNK        -0.5641 
     27 H31       -13.0481   12.2579   16.4822 H         1 UNK         0.4147 
     28 O2         -2.2391   14.5679   18.5762 O.3       1 UNK        -0.5174 
     29 H28        -1.5151   14.6729   19.1982 H         1 UNK         0.4065 
     30 O4         -3.2301   10.9099   21.4452 O.3       1 UNK        -0.5832 
     31 H29        -3.9201   10.2949   21.7032 H         1 UNK         0.4524 
@<TRIPOS>BOND
     1    1    4 1    
     2    1    5 1    
     3    2    6 2    
     4    3    4 ar   
     5    3    6 1    
     6    3    8 ar   
     7    4    9 ar   
     8    5    7 2    
     9    5   15 1    
    10    6    7 1    
    11    7   12 1    
    12    8   11 ar   
    13    8   28 1    
    14    9   10 ar   
    15    9   13 1    
    16   10   11 ar   
    17   10   30 1    
    18   11   14 1    
    19   15   16 ar   
    20   15   21 ar   
    21   16   17 ar   
    22   16   18 1    
    23   17   19 ar   
    24   17   24 1    
    25   19   20 ar   
    26   19   26 1    
    27   20   21 ar   
    28   20   22 1    
    29   21   23 1    
    30   24   25 1    
    31   26   27 1    
    32   28   29 1    
    33   30   31 1    
@<TRIPOS>SUBSTRUCTURE
     1 UNK         1 GROUP             0       ****    0 ROOT    
