@<TRIPOS>MOLECULE
1AO6 - preprocessed_merged9
31   33    1
SMALL
USER_CHARGES


@<TRIPOS>ATOM
      1 O1        -20.0211  -11.6691  -12.4398 O.3       1 UNK        -0.3882 
      2 O3        -22.7211  -10.0701  -15.0938 O.2       1 UNK        -0.5897 
      3 C7        -21.9791  -10.2501  -12.8018 C.ar      1 UNK        -0.4305 
      4 C8        -21.0141  -10.8391  -11.9618 C.ar      1 UNK         0.6712 
      5 C9        -19.9561  -11.9401  -13.7738 C.2       1 UNK         0.2671 
      6 C11       -21.9251  -10.5371  -14.2808 C.2       1 UNK         0.8578 
      7 C12       -20.8331  -11.4261  -14.6678 C.2       1 UNK        -0.6261 
      8 C13       -22.9501   -9.4171  -12.2038 C.ar      1 UNK         0.3376 
      9 C14       -21.0091  -10.6141  -10.5868 C.ar      1 UNK        -0.5057 
     10 C16       -21.9741   -9.7911  -10.0188 C.ar      1 UNK         0.3760 
     11 C17       -22.9401   -9.1951  -10.8258 C.ar      1 UNK        -0.4497 
     12 H22       -20.7411  -11.6691  -15.7128 H         1 UNK         0.2367 
     13 H23       -20.2571  -11.0791   -9.9668 H         1 UNK         0.2213 
     14 H25       -23.6871   -8.5551  -10.3778 H         1 UNK         0.1600 
     15 C10       -18.8161  -12.8551  -14.0938 C.ar      1 UNK        -0.0156 
     16 C15       -18.2521  -13.6791  -13.1048 C.ar      1 UNK        -0.0935 
     17 C19       -17.1881  -14.5371  -13.3878 C.ar      1 UNK         0.1886 
     18 H24       -18.6371  -13.6621  -12.0948 H         1 UNK         0.1603 
     19 C21       -16.6621  -14.5881  -14.6828 C.ar      1 UNK         0.1373 
     20 C20       -17.2061  -13.7791  -15.6778 C.ar      1 UNK        -0.1884 
     21 C18       -18.2681  -12.9251  -15.3868 C.ar      1 UNK        -0.0902 
     22 H27       -16.8071  -13.8101  -16.6818 H         1 UNK         0.1387 
     23 H26       -18.6531  -12.3201  -16.1928 H         1 UNK         0.1434 
     24 O5        -16.6751  -15.3211  -12.3848 O.3       1 UNK        -0.5451 
     25 H30       -17.0341  -16.2111  -12.3808 H         1 UNK         0.4183 
     26 O6        -15.6161  -15.4221  -14.9928 O.3       1 UNK        -0.5641 
     27 H31       -15.0281  -15.5831  -14.2518 H         1 UNK         0.4147 
     28 O2        -23.9351   -8.7931  -12.9288 O.3       1 UNK        -0.5174 
     29 H28       -24.8051   -8.8881  -12.5348 H         1 UNK         0.4065 
     30 O4        -21.9731   -9.5671   -8.6688 O.3       1 UNK        -0.5832 
     31 H29       -21.1241   -9.2571   -8.3448 H         1 UNK         0.4524 
@<TRIPOS>BOND
     1    1    4 1    
     2    1    5 1    
     3    2    6 2    
     4    3    4 ar   
     5    3    6 1    
     6    3    8 ar   
     7    4    9 ar   
     8    5    7 2    
     9    5   15 1    
    10    6    7 1    
    11    7   12 1    
    12    8   11 ar   
    13    8   28 1    
    14    9   10 ar   
    15    9   13 1    
    16   10   11 ar   
    17   10   30 1    
    18   11   14 1    
    19   15   16 ar   
    20   15   21 ar   
    21   16   17 ar   
    22   16   18 1    
    23   17   19 ar   
    24   17   24 1    
    25   19   20 ar   
    26   19   26 1    
    27   20   21 ar   
    28   20   22 1    
    29   21   23 1    
    30   24   25 1    
    31   26   27 1    
    32   28   29 1    
    33   30   31 1    
@<TRIPOS>SUBSTRUCTURE
     1 UNK         1 GROUP             0       ****    0 ROOT    
