@<TRIPOS>MOLECULE
1AO6 - preprocessed_merged9
31   33    1
SMALL
USER_CHARGES


@<TRIPOS>ATOM
      1 O1          3.8909    0.8139   -7.9168 O.3       1 UNK        -0.3882 
      2 O3          0.3189   -0.7981   -6.6778 O.2       1 UNK        -0.5897 
      3 C7          2.1229    0.7449   -6.2278 C.ar      1 UNK        -0.4305 
      4 C8          3.3419    1.2449   -6.7248 C.ar      1 UNK         0.6712 
      5 C9          3.2409   -0.1301   -8.6528 C.2       1 UNK         0.2671 
      6 C11         1.3879   -0.3011   -7.0268 C.2       1 UNK         0.8578 
      7 C12         2.0639   -0.6761   -8.2658 C.2       1 UNK        -0.6261 
      8 C13         1.6559    1.2569   -4.9978 C.ar      1 UNK         0.3376 
      9 C14         4.0699    2.2119   -6.0348 C.ar      1 UNK        -0.5057 
     10 C16         3.5919    2.7019   -4.8258 C.ar      1 UNK         0.3760 
     11 C17         2.3899    2.2259   -4.3108 C.ar      1 UNK        -0.4497 
     12 H22         1.5879   -1.4211   -8.8828 H         1 UNK         0.2367 
     13 H23         5.0019    2.5769   -6.4408 H         1 UNK         0.2213 
     14 H25         2.0229    2.6109   -3.3698 H         1 UNK         0.1600 
     15 C10         3.9909   -0.4631   -9.9038 C.ar      1 UNK        -0.0156 
     16 C15         3.6959    0.1859  -11.1158 C.ar      1 UNK        -0.0935 
     17 C19         4.3869   -0.1141  -12.2918 C.ar      1 UNK         0.1886 
     18 H24         2.9199    0.9369  -11.1598 H         1 UNK         0.1603 
     19 C21         5.3989   -1.0801  -12.2768 C.ar      1 UNK         0.1373 
     20 C20         5.7059   -1.7351  -11.0858 C.ar      1 UNK        -0.1884 
     21 C18         5.0109   -1.4301   -9.9158 C.ar      1 UNK        -0.0902 
     22 H27         6.4849   -2.4831  -11.0618 H         1 UNK         0.1387 
     23 H26         5.2879   -1.9651   -9.0218 H         1 UNK         0.1434 
     24 O5          4.0599    0.5489  -13.4478 O.3       1 UNK        -0.5451 
     25 H30         3.8299   -0.0421  -14.1678 H         1 UNK         0.4183 
     26 O6          6.0959   -1.3971  -13.4158 O.3       1 UNK        -0.5641 
     27 H31         6.0809   -2.3351  -13.6198 H         1 UNK         0.4147 
     28 O2          0.4809    0.8399   -4.4218 O.3       1 UNK        -0.5174 
     29 H28         0.1239    0.0509   -4.8348 H         1 UNK         0.4065 
     30 O4          4.3029    3.6529   -4.1438 O.3       1 UNK        -0.5832 
     31 H29         4.1859    3.5909   -3.1928 H         1 UNK         0.4524 
@<TRIPOS>BOND
     1    1    4 1    
     2    1    5 1    
     3    2    6 2    
     4    3    4 ar   
     5    3    6 1    
     6    3    8 ar   
     7    4    9 ar   
     8    5    7 2    
     9    5   15 1    
    10    6    7 1    
    11    7   12 1    
    12    8   11 ar   
    13    8   28 1    
    14    9   10 ar   
    15    9   13 1    
    16   10   11 ar   
    17   10   30 1    
    18   11   14 1    
    19   15   16 ar   
    20   15   21 ar   
    21   16   17 ar   
    22   16   18 1    
    23   17   19 ar   
    24   17   24 1    
    25   19   20 ar   
    26   19   26 1    
    27   20   21 ar   
    28   20   22 1    
    29   21   23 1    
    30   24   25 1    
    31   26   27 1    
    32   28   29 1    
    33   30   31 1    
@<TRIPOS>SUBSTRUCTURE
     1 UNK         1 GROUP             0       ****    0 ROOT    
