@<TRIPOS>MOLECULE
1AO6 - preprocessed_merged9
31   33    1
SMALL
USER_CHARGES


@<TRIPOS>ATOM
      1 O1          6.0799    0.3419   10.8042 O.3       1 UNK        -0.3882 
      2 O3          2.8019    0.0679   13.2682 O.2       1 UNK        -0.5897 
      3 C7          5.1369    0.6429   13.0412 C.ar      1 UNK        -0.4305 
      4 C8          6.2089    0.7069   12.1292 C.ar      1 UNK         0.6712 
      5 C9          4.8749   -0.0981   10.3432 C.2       1 UNK         0.2671 
      6 C11         3.7959    0.1579   12.5502 C.2       1 UNK         0.8578 
      7 C12         3.7819   -0.1971   11.1352 C.2       1 UNK        -0.6261 
      8 C13         5.3829    1.0409   14.3732 C.ar      1 UNK         0.3376 
      9 C14         7.4729    1.1449   12.5182 C.ar      1 UNK        -0.5057 
     10 C16         7.6929    1.5319   13.8352 C.ar      1 UNK         0.3760 
     11 C17         6.6519    1.4799   14.7572 C.ar      1 UNK        -0.4497 
     12 H22         2.8509   -0.5511   10.7242 H         1 UNK         0.2367 
     13 H23         8.2759    1.1839   11.7982 H         1 UNK         0.2213 
     14 H25         6.8299    1.7819   15.7802 H         1 UNK         0.1600 
     15 C10         4.9369   -0.4431    8.8882 C.ar      1 UNK        -0.0156 
     16 C15         4.0209    0.1089    7.9762 C.ar      1 UNK        -0.0935 
     17 C19         4.0659   -0.2031    6.6162 C.ar      1 UNK         0.1886 
     18 H24         3.2559    0.7929    8.3162 H         1 UNK         0.1603 
     19 C21         5.0409   -1.0841    6.1372 C.ar      1 UNK         0.1373 
     20 C20         5.9589   -1.6421    7.0242 C.ar      1 UNK        -0.1884 
     21 C18         5.9069   -1.3251    8.3812 C.ar      1 UNK        -0.0902 
     22 H27         6.7169   -2.3241    6.6662 H         1 UNK         0.1387 
     23 H26         6.6399   -1.7841    9.0252 H         1 UNK         0.1434 
     24 O5          3.1469    0.3629    5.7682 O.3       1 UNK        -0.5451 
     25 H30         3.4139    1.2269    5.4472 H         1 UNK         0.4183 
     26 O6          5.1119   -1.4111    4.8052 O.3       1 UNK        -0.5641 
     27 H31         4.4079   -1.0201    4.2822 H         1 UNK         0.4147 
     28 O2          4.4109    1.0189   15.3422 O.3       1 UNK        -0.5174 
     29 H28         4.4059    1.8109   15.8832 H         1 UNK         0.4065 
     30 O4          8.9329    1.9639   14.2232 O.3       1 UNK        -0.5832 
     31 H29         9.6429    1.5219   13.7522 H         1 UNK         0.4524 
@<TRIPOS>BOND
     1    1    4 1    
     2    1    5 1    
     3    2    6 2    
     4    3    4 ar   
     5    3    6 1    
     6    3    8 ar   
     7    4    9 ar   
     8    5    7 2    
     9    5   15 1    
    10    6    7 1    
    11    7   12 1    
    12    8   11 ar   
    13    8   28 1    
    14    9   10 ar   
    15    9   13 1    
    16   10   11 ar   
    17   10   30 1    
    18   11   14 1    
    19   15   16 ar   
    20   15   21 ar   
    21   16   17 ar   
    22   16   18 1    
    23   17   19 ar   
    24   17   24 1    
    25   19   20 ar   
    26   19   26 1    
    27   20   21 ar   
    28   20   22 1    
    29   21   23 1    
    30   24   25 1    
    31   26   27 1    
    32   28   29 1    
    33   30   31 1    
@<TRIPOS>SUBSTRUCTURE
     1 UNK         1 GROUP             0       ****    0 ROOT    
