@<TRIPOS>MOLECULE
Structure11
22   22    1
SMALL
USER_CHARGES


@<TRIPOS>ATOM
      1 C4         -4.1962   10.9952   -2.7238 C.3       1 JZ4        -0.1726 
      2 C7         -2.0748   11.3366    2.6404 C.ar      1 JZ4        -0.1651 
      3 C8         -0.9481   10.5000    2.6342 C.ar      1 JZ4        -0.0933 
      4 C9         -0.7837    9.4971    1.7016 C.ar      1 JZ4        -0.2219 
      5 C10        -1.7819    9.3431    0.7370 C.ar      1 JZ4         0.2119 
      6 C11        -3.0449   11.2171    1.6529 C.ar      1 JZ4        -0.0927 
      7 C12        -2.8874   10.1797    0.7079 C.ar      1 JZ4        -0.1047 
      8 C13        -3.9266   10.0987   -0.3621 C.3       1 JZ4        -0.0721 
      9 C14        -3.2819   10.8411   -1.5562 C.3       1 JZ4        -0.1263 
     10 OAB        -1.6366    8.4153   -0.2424 O.3       1 JZ4        -0.5965 
     11 H4_1       -3.6787   11.5243   -3.5239 H         1 JZ4         0.0585 
     12 H4_2       -4.5025   10.0110   -3.0784 H         1 JZ4         0.0585 
     13 H4_3       -5.0769   11.5629   -2.4237 H         1 JZ4         0.0585 
     14 HC7        -2.1919   12.0789    3.4160 H         1 JZ4         0.1314 
     15 HC8        -0.1742   10.6311    3.3760 H         1 JZ4         0.1304 
     16 HC9         0.0924    8.8666    1.7354 H         1 JZ4         0.1288 
     17 HC11       -3.8786   11.9032    1.6290 H         1 JZ4         0.1351 
     18 H131       -4.8175   10.6384   -0.0408 H         1 JZ4         0.0745 
     19 H132       -4.0864    9.0545   -0.6308 H         1 JZ4         0.0745 
     20 H141       -2.9425   11.8244   -1.2303 H         1 JZ4         0.0685 
     21 H142       -2.3822   10.3110   -1.8687 H         1 JZ4         0.0685 
     22 HOAB       -2.4033    8.4358   -0.8196 H         1 JZ4         0.4460 
@<TRIPOS>BOND
     1    1    9 1    
     2    1   11 1    
     3    1   12 1    
     4    1   13 1    
     5    2    3 ar   
     6    2    6 ar   
     7    2   14 1    
     8    3    4 ar   
     9    3   15 1    
    10    4    5 ar   
    11    4   16 1    
    12    5    7 ar   
    13    5   10 1    
    14    6    7 ar   
    15    6   17 1    
    16    7    8 1    
    17    8    9 1    
    18    8   18 1    
    19    8   19 1    
    20    9   20 1    
    21    9   21 1    
    22   10   22 1    
@<TRIPOS>SUBSTRUCTURE
     1 JZ4         1 GROUP             0       ****    0 ROOT    
