@<TRIPOS>MOLECULE
Structure13
16   16    1
SMALL
USER_CHARGES


@<TRIPOS>ATOM
      1 C9         -1.7544   10.9478    2.4332 C.ar      1 JZ0        -0.0953 
      2 C10        -3.0254   11.5222    2.4692 C.ar      1 JZ0        -0.1633 
      3 C11        -4.0179   11.0801    1.5931 C.ar      1 JZ0        -0.0955 
      4 C12        -3.7128   10.0603    0.6863 C.ar      1 JZ0        -0.2192 
      5 C13        -2.4364    9.4929    0.6542 C.ar      1 JZ0         0.2076 
      6 C14        -1.4457    9.9343    1.5325 C.ar      1 JZ0        -0.1041 
      7 C15        -0.0353    9.3056    1.5064 C.3       1 JZ0        -0.1152 
      8 OAB        -2.1683    8.5012   -0.2287 O.3       1 JZ0        -0.5969 
      9 HC9        -0.9881   11.2892    3.1134 H         1 JZ0         0.1347 
     10 HC10       -3.2422   12.3099    3.1755 H         1 JZ0         0.1313 
     11 HC11       -5.0017   11.5247    1.6231 H         1 JZ0         0.1305 
     12 HC12       -4.4675    9.7033    0.0011 H         1 JZ0         0.1288 
     13 H151        0.0054    8.5349    0.7367 H         1 JZ0         0.0702 
     14 H152        0.7029   10.0770    1.2868 H         1 JZ0         0.0702 
     15 H153        0.1828    8.8606    2.4773 H         1 JZ0         0.0702 
     16 HOAB       -1.2562    8.2197   -0.1272 H         1 JZ0         0.4460 
@<TRIPOS>BOND
     1    1    2 ar   
     2    1    6 ar   
     3    1    9 1    
     4    2    3 ar   
     5    2   10 1    
     6    3    4 ar   
     7    3   11 1    
     8    4    5 ar   
     9    4   12 1    
    10    5    6 ar   
    11    5    8 1    
    12    6    7 1    
    13    7   13 1    
    14    7   14 1    
    15    7   15 1    
    16    8   16 1    
@<TRIPOS>SUBSTRUCTURE
     1 JZ0         1 GROUP             0       ****    0 ROOT    
