@<TRIPOS>MOLECULE
Structure15
19   19    1
SMALL
USER_CHARGES


@<TRIPOS>ATOM
      1 C7         -2.8586   11.3098    2.4301 C.ar      1 JZ1        -0.1649 
      2 C8         -1.5636   10.7920    2.3987 C.ar      1 JZ1        -0.0937 
      3 C9         -1.2019    9.9310    1.3839 C.ar      1 JZ1        -0.2217 
      4 C10        -2.1273    9.5877    0.3921 C.ar      1 JZ1         0.2118 
      5 C11        -3.7910   10.9677    1.4463 C.ar      1 JZ1        -0.0930 
      6 C12        -3.4290   10.0950    0.4109 C.ar      1 JZ1        -0.1036 
      7 C13        -4.4939    9.7694   -0.6459 C.3       1 JZ1        -0.0731 
      8 C14        -4.2764   10.5955   -1.9478 C.3       1 JZ1        -0.1669 
      9 OAB        -1.7383    8.7333   -0.6027 O.3       1 JZ1        -0.5968 
     10 HC7        -3.1516   11.9840    3.2213 H         1 JZ1         0.1313 
     11 HC8        -0.8538   11.0660    3.1651 H         1 JZ1         0.1303 
     12 HC9        -0.2033    9.5209    1.3538 H         1 JZ1         0.1287 
     13 HC11       -4.7902   11.3759    1.4840 H         1 JZ1         0.1348 
     14 H131       -5.4834    9.9830   -0.2418 H         1 JZ1         0.0737 
     15 H132       -4.4581    8.7057   -0.8811 H         1 JZ1         0.0737 
     16 H141       -5.0480   10.3399   -2.6741 H         1 JZ1         0.0612 
     17 H142       -4.3333   11.6594   -1.7174 H         1 JZ1         0.0612 
     18 H143       -3.2957   10.3665   -2.3645 H         1 JZ1         0.0612 
     19 HOAB       -2.4707    8.5898   -1.2064 H         1 JZ1         0.4460 
@<TRIPOS>BOND
     1    1    2 ar   
     2    1    5 ar   
     3    1   10 1    
     4    2    3 ar   
     5    2   11 1    
     6    3    4 ar   
     7    3   12 1    
     8    4    6 ar   
     9    4    9 1    
    10    5    6 ar   
    11    5   13 1    
    12    6    7 1    
    13    7    8 1    
    14    7   14 1    
    15    7   15 1    
    16    8   16 1    
    17    8   17 1    
    18    8   18 1    
    19    9   19 1    
@<TRIPOS>SUBSTRUCTURE
     1 JZ1         1 GROUP             0       ****    0 ROOT    
