@<TRIPOS>MOLECULE
Structure17
16   16    1
SMALL
USER_CHARGES


@<TRIPOS>ATOM
      1 CL         -0.2928   10.6995    3.3544 Cl        1 JZ2        -0.1531 
      2 C14        -1.3943   10.5252    2.0696 C.ar      1 JZ2         0.1052 
      3 C5         -1.1909    9.4915    1.1748 C.ar      1 JZ2        -0.2140 
      4 C6         -2.0797    9.3314    0.1342 C.ar      1 JZ2         0.2172 
      5 C11        -3.1615   10.2067   -0.0028 C.ar      1 JZ2        -0.1027 
      6 C7         -4.1647   10.0803   -1.1638 C.3       1 JZ2        -0.1162 
      7 C12        -3.3455   11.2449    0.9104 C.ar      1 JZ2        -0.0876 
      8 C13        -2.4582   11.4026    1.9675 C.ar      1 JZ2        -0.1547 
      9 OAB        -1.8460    8.3066   -0.7398 O.3       1 JZ2        -0.5913 
     10 HC5        -0.3480    8.8279    1.2988 H         1 JZ2         0.1427 
     11 H7_1       -4.9221   10.8593   -1.0767 H         1 JZ2         0.0727 
     12 H7_2       -3.6390   10.1899   -2.1124 H         1 JZ2         0.0727 
     13 H7_3       -4.6441    9.1021   -1.1256 H         1 JZ2         0.0727 
     14 HC12       -4.1768   11.9247    0.7948 H         1 JZ2         0.1421 
     15 HC13       -2.5837   12.1867    2.6996 H         1 JZ2         0.1454 
     16 HOAB       -2.5287    8.2991   -1.4148 H         1 JZ2         0.4490 
@<TRIPOS>BOND
     1    1    2 1    
     2    2    3 ar   
     3    2    8 ar   
     4    3    4 ar   
     5    3   10 1    
     6    4    5 ar   
     7    4    9 1    
     8    5    6 1    
     9    5    7 ar   
    10    6   11 1    
    11    6   12 1    
    12    6   13 1    
    13    7    8 ar   
    14    7   14 1    
    15    8   15 1    
    16    9   16 1    
@<TRIPOS>SUBSTRUCTURE
     1 JZ2         1 GROUP             0       ****    0 ROOT    
